TELEMACHUS=
LACEDAEMON=
PHAEACIANS=
ODYSSEUS=
MENELAUS=
POSEIDON=God of the sea
ATHENA=
ITHACA=
NAIADS=
SUITORS=
